Circuit: * C:\GitHub\FuncGen_Simulation\FuncGen[Sim]\electronica.asc

WARNING: Node N005 is floating.

WARNING: Less than two connections to node NC_01.  This node is used by S:X2:2.
WARNING: Less than two connections to node NC_02.  This node is used by S:X2:3.
WARNING: Less than two connections to node NC_03.  This node is used by S:X2:4.
WARNING: Less than two connections to node NC_04.  This node is used by S:X2:5.
WARNING: Less than two connections to node NC_05.  This node is used by S:X2:6.
WARNING: Less than two connections to node NC_06.  This node is used by S:X2:7.
WARNING: Less than two connections to node NC_07.  This node is used by R35.
Early termination of direct N-R iteration.
Direct Newton iteration failed to find .op point.  (Use ".option noopiter" to skip.)
Starting Gmin stepping
Gmin = 10
vernier = 0.5
vernier = 0.25
vernier = 0.125
Gmin = 5.5165
vernier = 0.0625
vernier = 0.03125
vernier = 0.015625
vernier = 0.0078125
Gmin = 5.49501
vernier = 0.00390625
vernier = 0.00195313
vernier = 0.000976563
vernier = 0.000488281
Gmin = 5.50104
Gmin = 0
Gmin stepping failed

Starting source stepping with srcstepmethod=0
Source Step = 3.0303%
Source Step = 12.1212%
Source Step = 19.697%
Source Step = 27.2727%
Source Step = 34.8485%
Source Step = 42.4242%
vernier = 0.375
Source Step = 52.6515%
Source Step = 64.0152%
Source Step = 72.0407%
vernier = 0.00585938
Starting source stepping with srcstepmethod=1
Source Step = 3.0303%
vernier = 0.25
Source stepping failed

Pseudo Transient failed in finding the operating point at 5 ns.
Trouble finding operating point....skipping operating point for Transient analysis.
Ignoring empty pin current: Ix(x2:v+)
Ignoring empty pin current: Ix(x2:vee)
Changing Tseed to 1e-007
Changing Tseed to 1e-009
Changing Tseed to 1e-006
Changing Tseed to 1e-010
Changing Tseed to 1e-005
Changing Tseed to 1e-011
Changing Tseed to 0.0001
Changing Tseed to 1e-012
Changing Tseed to 0.001
Changing Tseed to 1e-013
Changing Tseed to 0.01
Changing Tseed to 1e-014
to 2e-018

Date: Fri Feb 12 20:23:26 2021
Total elapsed time: 478.286 seconds.

tnom = 27
temp = 27
method = modified trap
totiter = 25524
traniter = 6522
tranpoints = 2281
accept = 1926
rejected = 723
matrix size = 340
fillins = 4412
solver = Normal
Thread vector: 48.2/19.9[7] 15.7/9.1[7] 13.1/5.6[7] 7.5/10.1[1]  2592/500
Matrix Compiler1: 1.28 MB object code size  598.5/330.1/[152.4]
Matrix Compiler2: 103.13 KB object code size  48.1/37.4/[15.0]

